*SPEF "ieee 1481-1999"
*DESIGN "analog_wrapper"
*DATE "11:11:11 Fri 11 11, 1111"
*VENDOR "OpenRCX"
*PROGRAM "Parallel Extraction"
*VERSION "1.0"
*DESIGN_FLOW "NAME_SCOPE LOCAL" "PIN_CAP NONE"
*DIVIDER /
*DELIMITER :
*BUS_DELIMITER []
*T_UNIT 1 NS
*C_UNIT 1 PF
*R_UNIT 1 OHM
*L_UNIT 1 HENRY

*NAME_MAP
*1 active
*2 buf_io_out[0]
*3 buf_io_out[10]
*4 buf_io_out[11]
*5 buf_io_out[12]
*6 buf_io_out[13]
*7 buf_io_out[14]
*8 buf_io_out[15]
*9 buf_io_out[16]
*10 buf_io_out[17]
*11 buf_io_out[18]
*12 buf_io_out[19]
*13 buf_io_out[1]
*14 buf_io_out[20]
*15 buf_io_out[21]
*16 buf_io_out[22]
*17 buf_io_out[23]
*18 buf_io_out[24]
*19 buf_io_out[25]
*20 buf_io_out[26]
*21 buf_io_out[27]
*22 buf_io_out[28]
*23 buf_io_out[29]
*24 buf_io_out[2]
*25 buf_io_out[30]
*26 buf_io_out[31]
*27 buf_io_out[32]
*28 buf_io_out[33]
*29 buf_io_out[34]
*30 buf_io_out[35]
*31 buf_io_out[36]
*32 buf_io_out[37]
*33 buf_io_out[3]
*34 buf_io_out[4]
*35 buf_io_out[5]
*36 buf_io_out[6]
*37 buf_io_out[7]
*38 buf_io_out[8]
*39 buf_io_out[9]
*40 io_in[0]
*41 io_in[10]
*42 io_in[11]
*43 io_in[12]
*44 io_in[13]
*45 io_in[14]
*46 io_in[15]
*47 io_in[16]
*48 io_in[17]
*49 io_in[18]
*50 io_in[19]
*51 io_in[1]
*52 io_in[20]
*53 io_in[21]
*54 io_in[22]
*55 io_in[23]
*56 io_in[24]
*57 io_in[25]
*58 io_in[26]
*59 io_in[27]
*60 io_in[28]
*61 io_in[29]
*62 io_in[2]
*63 io_in[30]
*64 io_in[31]
*65 io_in[32]
*66 io_in[33]
*67 io_in[34]
*68 io_in[35]
*69 io_in[36]
*70 io_in[37]
*71 io_in[3]
*72 io_in[4]
*73 io_in[5]
*74 io_in[6]
*75 io_in[7]
*76 io_in[8]
*77 io_in[9]
*78 io_oeb[0]
*79 io_oeb[10]
*80 io_oeb[11]
*81 io_oeb[12]
*82 io_oeb[13]
*83 io_oeb[14]
*84 io_oeb[15]
*85 io_oeb[16]
*86 io_oeb[17]
*87 io_oeb[18]
*88 io_oeb[19]
*89 io_oeb[1]
*90 io_oeb[20]
*91 io_oeb[21]
*92 io_oeb[22]
*93 io_oeb[23]
*94 io_oeb[24]
*95 io_oeb[25]
*96 io_oeb[26]
*97 io_oeb[27]
*98 io_oeb[28]
*99 io_oeb[29]
*100 io_oeb[2]
*101 io_oeb[30]
*102 io_oeb[31]
*103 io_oeb[32]
*104 io_oeb[33]
*105 io_oeb[34]
*106 io_oeb[35]
*107 io_oeb[36]
*108 io_oeb[37]
*109 io_oeb[3]
*110 io_oeb[4]
*111 io_oeb[5]
*112 io_oeb[6]
*113 io_oeb[7]
*114 io_oeb[8]
*115 io_oeb[9]
*116 io_out[0]
*117 io_out[10]
*118 io_out[11]
*119 io_out[12]
*120 io_out[13]
*121 io_out[14]
*122 io_out[15]
*123 io_out[16]
*124 io_out[17]
*125 io_out[18]
*126 io_out[19]
*127 io_out[1]
*128 io_out[20]
*129 io_out[21]
*130 io_out[22]
*131 io_out[23]
*132 io_out[24]
*133 io_out[25]
*134 io_out[26]
*135 io_out[27]
*136 io_out[28]
*137 io_out[29]
*138 io_out[2]
*139 io_out[30]
*140 io_out[31]
*141 io_out[32]
*142 io_out[33]
*143 io_out[34]
*144 io_out[35]
*145 io_out[36]
*146 io_out[37]
*147 io_out[3]
*148 io_out[4]
*149 io_out[5]
*150 io_out[6]
*151 io_out[7]
*152 io_out[8]
*153 io_out[9]
*156 wb_clk_i
*157 _000_
*158 _001_
*159 _002_
*160 _003_
*161 _004_
*162 _005_
*163 _006_
*164 _007_
*165 _008_
*166 _009_
*167 _010_
*168 _011_
*169 _012_
*170 _013_
*171 _014_
*172 _015_
*173 _016_
*174 _017_
*175 _018_
*176 _019_
*177 _020_
*178 _021_
*179 _022_
*180 _023_
*181 _024_
*182 _025_
*183 _026_
*184 _027_
*185 _028_
*186 _029_
*187 _030_
*188 _031_
*189 _032_
*190 _033_
*191 _034_
*192 _035_
*193 _036_
*194 _037_
*195 _038_
*196 _039_
*197 _040_
*198 _041_
*199 _042_
*200 _043_
*201 _044_
*202 _045_
*203 _046_
*204 _047_
*205 _048_
*206 _049_
*207 _050_
*208 _051_
*209 _052_
*210 _053_
*211 _054_
*212 _055_
*213 _056_
*214 _057_
*215 _058_
*216 _059_
*217 _060_
*218 _061_
*219 _062_
*220 _063_
*221 _064_
*222 _065_
*223 _066_
*224 _067_
*225 _068_
*226 _069_
*227 _070_
*228 _071_
*229 _072_
*230 _073_
*231 _074_
*232 _075_
*233 _076_
*234 _077_
*235 _078_
*236 _079_
*237 _080_
*238 _081_
*239 _082_
*240 _083_
*241 _084_
*242 _085_
*243 _086_
*244 _087_
*245 _088_
*246 _089_
*247 _090_
*248 _091_
*249 _092_
*250 _093_
*251 net1
*252 net10
*253 net11
*254 net12
*255 net13
*256 net14
*257 net15
*258 net16
*259 net17
*260 net18
*261 net19
*262 net2
*263 net20
*264 net21
*265 net22
*266 net23
*267 net24
*268 net25
*269 net26
*270 net27
*271 net28
*272 net29
*273 net3
*274 net30
*275 net31
*276 net32
*277 net33
*278 net34
*279 net35
*280 net36
*281 net37
*282 net38
*283 net39
*284 net4
*285 net40
*286 net41
*287 net42
*288 net43
*289 net44
*290 net45
*291 net46
*292 net47
*293 net48
*294 net49
*295 net5
*296 net50
*297 net51
*298 net52
*299 net53
*300 net54
*301 net55
*302 net56
*303 net57
*304 net58
*305 net59
*306 net6
*307 net60
*308 net61
*309 net62
*310 net63
*311 net64
*312 net65
*313 net66
*314 net67
*315 net68
*316 net69
*317 net7
*318 net70
*319 net71
*320 net72
*321 net73
*322 net74
*323 net75
*324 net76
*325 net77
*326 net8
*327 net9
*328 FILLER_0_109
*329 FILLER_0_113
*330 FILLER_0_125
*331 FILLER_0_137
*332 FILLER_0_141
*333 FILLER_0_15
*334 FILLER_0_153
*335 FILLER_0_165
*336 FILLER_0_173
*337 FILLER_0_185
*338 FILLER_0_193
*339 FILLER_0_197
*340 FILLER_0_206
*341 FILLER_0_213
*342 FILLER_0_220
*343 FILLER_0_225
*344 FILLER_0_248
*345 FILLER_0_256
*346 FILLER_0_268
*347 FILLER_0_27
*348 FILLER_0_284
*349 FILLER_0_29
*350 FILLER_0_296
*351 FILLER_0_3
*352 FILLER_0_309
*353 FILLER_0_321
*354 FILLER_0_333
*355 FILLER_0_337
*356 FILLER_0_349
*357 FILLER_0_361
*358 FILLER_0_365
*359 FILLER_0_373
*360 FILLER_0_384
*361 FILLER_0_393
*362 FILLER_0_401
*363 FILLER_0_408
*364 FILLER_0_41
*365 FILLER_0_421
*366 FILLER_0_433
*367 FILLER_0_445
*368 FILLER_0_449
*369 FILLER_0_457
*370 FILLER_0_462
*371 FILLER_0_474
*372 FILLER_0_477
*373 FILLER_0_485
*374 FILLER_0_489
*375 FILLER_0_501
*376 FILLER_0_505
*377 FILLER_0_512
*378 FILLER_0_53
*379 FILLER_0_57
*380 FILLER_0_65
*381 FILLER_0_69
*382 FILLER_0_81
*383 FILLER_0_85
*384 FILLER_0_97
*385 FILLER_10_109
*386 FILLER_10_121
*387 FILLER_10_133
*388 FILLER_10_139
*389 FILLER_10_141
*390 FILLER_10_15
*391 FILLER_10_153
*392 FILLER_10_165
*393 FILLER_10_177
*394 FILLER_10_189
*395 FILLER_10_195
*396 FILLER_10_197
*397 FILLER_10_209
*398 FILLER_10_221
*399 FILLER_10_233
*400 FILLER_10_245
*401 FILLER_10_251
*402 FILLER_10_253
*403 FILLER_10_265
*404 FILLER_10_27
*405 FILLER_10_277
*406 FILLER_10_289
*407 FILLER_10_29
*408 FILLER_10_3
*409 FILLER_10_301
*410 FILLER_10_307
*411 FILLER_10_309
*412 FILLER_10_321
*413 FILLER_10_333
*414 FILLER_10_345
*415 FILLER_10_357
*416 FILLER_10_363
*417 FILLER_10_365
*418 FILLER_10_377
*419 FILLER_10_389
*420 FILLER_10_401
*421 FILLER_10_41
*422 FILLER_10_413
*423 FILLER_10_419
*424 FILLER_10_421
*425 FILLER_10_433
*426 FILLER_10_445
*427 FILLER_10_457
*428 FILLER_10_469
*429 FILLER_10_475
*430 FILLER_10_477
*431 FILLER_10_489
*432 FILLER_10_501
*433 FILLER_10_513
*434 FILLER_10_53
*435 FILLER_10_65
*436 FILLER_10_77
*437 FILLER_10_83
*438 FILLER_10_85
*439 FILLER_10_97
*440 FILLER_11_105
*441 FILLER_11_111
*442 FILLER_11_113
*443 FILLER_11_125
*444 FILLER_11_137
*445 FILLER_11_149
*446 FILLER_11_15
*447 FILLER_11_161
*448 FILLER_11_167
*449 FILLER_11_169
*450 FILLER_11_181
*451 FILLER_11_193
*452 FILLER_11_205
*453 FILLER_11_217
*454 FILLER_11_223
*455 FILLER_11_225
*456 FILLER_11_237
*457 FILLER_11_249
*458 FILLER_11_261
*459 FILLER_11_27
*460 FILLER_11_273
*461 FILLER_11_279
*462 FILLER_11_281
*463 FILLER_11_293
*464 FILLER_11_3
*465 FILLER_11_305
*466 FILLER_11_317
*467 FILLER_11_329
*468 FILLER_11_335
*469 FILLER_11_337
*470 FILLER_11_349
*471 FILLER_11_361
*472 FILLER_11_373
*473 FILLER_11_385
*474 FILLER_11_39
*475 FILLER_11_391
*476 FILLER_11_393
*477 FILLER_11_405
*478 FILLER_11_417
*479 FILLER_11_429
*480 FILLER_11_441
*481 FILLER_11_447
*482 FILLER_11_449
*483 FILLER_11_461
*484 FILLER_11_473
*485 FILLER_11_485
*486 FILLER_11_497
*487 FILLER_11_503
*488 FILLER_11_505
*489 FILLER_11_51
*490 FILLER_11_513
*491 FILLER_11_55
*492 FILLER_11_57
*493 FILLER_11_69
*494 FILLER_11_81
*495 FILLER_11_93
*496 FILLER_12_109
*497 FILLER_12_121
*498 FILLER_12_133
*499 FILLER_12_139
*500 FILLER_12_141
*501 FILLER_12_15
*502 FILLER_12_153
*503 FILLER_12_165
*504 FILLER_12_177
*505 FILLER_12_189
*506 FILLER_12_195
*507 FILLER_12_197
*508 FILLER_12_209
*509 FILLER_12_221
*510 FILLER_12_233
*511 FILLER_12_245
*512 FILLER_12_251
*513 FILLER_12_253
*514 FILLER_12_265
*515 FILLER_12_27
*516 FILLER_12_277
*517 FILLER_12_289
*518 FILLER_12_29
*519 FILLER_12_3
*520 FILLER_12_301
*521 FILLER_12_307
*522 FILLER_12_309
*523 FILLER_12_321
*524 FILLER_12_333
*525 FILLER_12_345
*526 FILLER_12_357
*527 FILLER_12_363
*528 FILLER_12_365
*529 FILLER_12_377
*530 FILLER_12_389
*531 FILLER_12_401
*532 FILLER_12_41
*533 FILLER_12_413
*534 FILLER_12_419
*535 FILLER_12_421
*536 FILLER_12_433
*537 FILLER_12_445
*538 FILLER_12_457
*539 FILLER_12_469
*540 FILLER_12_475
*541 FILLER_12_477
*542 FILLER_12_489
*543 FILLER_12_501
*544 FILLER_12_513
*545 FILLER_12_53
*546 FILLER_12_65
*547 FILLER_12_77
*548 FILLER_12_83
*549 FILLER_12_85
*550 FILLER_12_97
*551 FILLER_13_105
*552 FILLER_13_111
*553 FILLER_13_113
*554 FILLER_13_125
*555 FILLER_13_137
*556 FILLER_13_149
*557 FILLER_13_15
*558 FILLER_13_161
*559 FILLER_13_167
*560 FILLER_13_169
*561 FILLER_13_181
*562 FILLER_13_193
*563 FILLER_13_205
*564 FILLER_13_217
*565 FILLER_13_223
*566 FILLER_13_225
*567 FILLER_13_237
*568 FILLER_13_249
*569 FILLER_13_261
*570 FILLER_13_27
*571 FILLER_13_273
*572 FILLER_13_279
*573 FILLER_13_281
*574 FILLER_13_293
*575 FILLER_13_3
*576 FILLER_13_305
*577 FILLER_13_317
*578 FILLER_13_329
*579 FILLER_13_335
*580 FILLER_13_337
*581 FILLER_13_349
*582 FILLER_13_361
*583 FILLER_13_373
*584 FILLER_13_385
*585 FILLER_13_39
*586 FILLER_13_391
*587 FILLER_13_393
*588 FILLER_13_405
*589 FILLER_13_417
*590 FILLER_13_429
*591 FILLER_13_441
*592 FILLER_13_447
*593 FILLER_13_449
*594 FILLER_13_461
*595 FILLER_13_473
*596 FILLER_13_497
*597 FILLER_13_503
*598 FILLER_13_505
*599 FILLER_13_51
*600 FILLER_13_513
*601 FILLER_13_55
*602 FILLER_13_57
*603 FILLER_13_69
*604 FILLER_13_81
*605 FILLER_13_93
*606 FILLER_14_109
*607 FILLER_14_121
*608 FILLER_14_133
*609 FILLER_14_139
*610 FILLER_14_141
*611 FILLER_14_15
*612 FILLER_14_153
*613 FILLER_14_165
*614 FILLER_14_177
*615 FILLER_14_189
*616 FILLER_14_195
*617 FILLER_14_197
*618 FILLER_14_209
*619 FILLER_14_221
*620 FILLER_14_233
*621 FILLER_14_245
*622 FILLER_14_251
*623 FILLER_14_253
*624 FILLER_14_265
*625 FILLER_14_27
*626 FILLER_14_277
*627 FILLER_14_289
*628 FILLER_14_29
*629 FILLER_14_3
*630 FILLER_14_301
*631 FILLER_14_307
*632 FILLER_14_309
*633 FILLER_14_321
*634 FILLER_14_333
*635 FILLER_14_345
*636 FILLER_14_357
*637 FILLER_14_363
*638 FILLER_14_365
*639 FILLER_14_377
*640 FILLER_14_389
*641 FILLER_14_401
*642 FILLER_14_41
*643 FILLER_14_413
*644 FILLER_14_419
*645 FILLER_14_421
*646 FILLER_14_433
*647 FILLER_14_445
*648 FILLER_14_457
*649 FILLER_14_469
*650 FILLER_14_475
*651 FILLER_14_480
*652 FILLER_14_487
*653 FILLER_14_499
*654 FILLER_14_511
*655 FILLER_14_515
*656 FILLER_14_53
*657 FILLER_14_65
*658 FILLER_14_77
*659 FILLER_14_83
*660 FILLER_14_85
*661 FILLER_14_97
*662 FILLER_15_105
*663 FILLER_15_111
*664 FILLER_15_113
*665 FILLER_15_125
*666 FILLER_15_137
*667 FILLER_15_149
*668 FILLER_15_15
*669 FILLER_15_161
*670 FILLER_15_167
*671 FILLER_15_169
*672 FILLER_15_181
*673 FILLER_15_193
*674 FILLER_15_205
*675 FILLER_15_217
*676 FILLER_15_223
*677 FILLER_15_225
*678 FILLER_15_237
*679 FILLER_15_249
*680 FILLER_15_261
*681 FILLER_15_27
*682 FILLER_15_273
*683 FILLER_15_279
*684 FILLER_15_281
*685 FILLER_15_293
*686 FILLER_15_3
*687 FILLER_15_305
*688 FILLER_15_317
*689 FILLER_15_329
*690 FILLER_15_335
*691 FILLER_15_337
*692 FILLER_15_349
*693 FILLER_15_361
*694 FILLER_15_373
*695 FILLER_15_385
*696 FILLER_15_39
*697 FILLER_15_391
*698 FILLER_15_393
*699 FILLER_15_405
*700 FILLER_15_417
*701 FILLER_15_429
*702 FILLER_15_441
*703 FILLER_15_447
*704 FILLER_15_449
*705 FILLER_15_461
*706 FILLER_15_469
*707 FILLER_15_475
*708 FILLER_15_500
*709 FILLER_15_505
*710 FILLER_15_51
*711 FILLER_15_513
*712 FILLER_15_55
*713 FILLER_15_57
*714 FILLER_15_69
*715 FILLER_15_81
*716 FILLER_15_93
*717 FILLER_16_109
*718 FILLER_16_121
*719 FILLER_16_133
*720 FILLER_16_139
*721 FILLER_16_141
*722 FILLER_16_15
*723 FILLER_16_153
*724 FILLER_16_165
*725 FILLER_16_177
*726 FILLER_16_189
*727 FILLER_16_195
*728 FILLER_16_197
*729 FILLER_16_209
*730 FILLER_16_221
*731 FILLER_16_227
*732 FILLER_16_231
*733 FILLER_16_243
*734 FILLER_16_251
*735 FILLER_16_253
*736 FILLER_16_265
*737 FILLER_16_27
*738 FILLER_16_277
*739 FILLER_16_289
*740 FILLER_16_29
*741 FILLER_16_3
*742 FILLER_16_301
*743 FILLER_16_307
*744 FILLER_16_309
*745 FILLER_16_321
*746 FILLER_16_333
*747 FILLER_16_345
*748 FILLER_16_357
*749 FILLER_16_363
*750 FILLER_16_365
*751 FILLER_16_377
*752 FILLER_16_389
*753 FILLER_16_401
*754 FILLER_16_41
*755 FILLER_16_413
*756 FILLER_16_419
*757 FILLER_16_421
*758 FILLER_16_433
*759 FILLER_16_445
*760 FILLER_16_457
*761 FILLER_16_469
*762 FILLER_16_475
*763 FILLER_16_477
*764 FILLER_16_484
*765 FILLER_16_496
*766 FILLER_16_508
*767 FILLER_16_53
*768 FILLER_16_65
*769 FILLER_16_77
*770 FILLER_16_83
*771 FILLER_16_85
*772 FILLER_16_97
*773 FILLER_17_105
*774 FILLER_17_111
*775 FILLER_17_113
*776 FILLER_17_125
*777 FILLER_17_137
*778 FILLER_17_149
*779 FILLER_17_15
*780 FILLER_17_161
*781 FILLER_17_167
*782 FILLER_17_169
*783 FILLER_17_181
*784 FILLER_17_193
*785 FILLER_17_205
*786 FILLER_17_217
*787 FILLER_17_223
*788 FILLER_17_225
*789 FILLER_17_248
*790 FILLER_17_256
*791 FILLER_17_261
*792 FILLER_17_27
*793 FILLER_17_273
*794 FILLER_17_279
*795 FILLER_17_281
*796 FILLER_17_293
*797 FILLER_17_3
*798 FILLER_17_305
*799 FILLER_17_317
*800 FILLER_17_329
*801 FILLER_17_335
*802 FILLER_17_337
*803 FILLER_17_349
*804 FILLER_17_361
*805 FILLER_17_373
*806 FILLER_17_385
*807 FILLER_17_39
*808 FILLER_17_391
*809 FILLER_17_393
*810 FILLER_17_405
*811 FILLER_17_429
*812 FILLER_17_441
*813 FILLER_17_447
*814 FILLER_17_449
*815 FILLER_17_461
*816 FILLER_17_473
*817 FILLER_17_485
*818 FILLER_17_497
*819 FILLER_17_503
*820 FILLER_17_505
*821 FILLER_17_51
*822 FILLER_17_513
*823 FILLER_17_55
*824 FILLER_17_57
*825 FILLER_17_69
*826 FILLER_17_81
*827 FILLER_17_93
*828 FILLER_18_109
*829 FILLER_18_121
*830 FILLER_18_133
*831 FILLER_18_139
*832 FILLER_18_141
*833 FILLER_18_15
*834 FILLER_18_153
*835 FILLER_18_165
*836 FILLER_18_177
*837 FILLER_18_189
*838 FILLER_18_195
*839 FILLER_18_197
*840 FILLER_18_209
*841 FILLER_18_221
*842 FILLER_18_230
*843 FILLER_18_242
*844 FILLER_18_250
*845 FILLER_18_253
*846 FILLER_18_27
*847 FILLER_18_278
*848 FILLER_18_29
*849 FILLER_18_290
*850 FILLER_18_3
*851 FILLER_18_302
*852 FILLER_18_309
*853 FILLER_18_321
*854 FILLER_18_333
*855 FILLER_18_345
*856 FILLER_18_357
*857 FILLER_18_363
*858 FILLER_18_365
*859 FILLER_18_377
*860 FILLER_18_389
*861 FILLER_18_401
*862 FILLER_18_41
*863 FILLER_18_412
*864 FILLER_18_421
*865 FILLER_18_433
*866 FILLER_18_445
*867 FILLER_18_457
*868 FILLER_18_469
*869 FILLER_18_475
*870 FILLER_18_477
*871 FILLER_18_489
*872 FILLER_18_501
*873 FILLER_18_513
*874 FILLER_18_53
*875 FILLER_18_65
*876 FILLER_18_77
*877 FILLER_18_83
*878 FILLER_18_85
*879 FILLER_18_97
*880 FILLER_19_105
*881 FILLER_19_111
*882 FILLER_19_113
*883 FILLER_19_125
*884 FILLER_19_137
*885 FILLER_19_149
*886 FILLER_19_15
*887 FILLER_19_161
*888 FILLER_19_167
*889 FILLER_19_169
*890 FILLER_19_181
*891 FILLER_19_193
*892 FILLER_19_205
*893 FILLER_19_217
*894 FILLER_19_223
*895 FILLER_19_225
*896 FILLER_19_237
*897 FILLER_19_249
*898 FILLER_19_257
*899 FILLER_19_262
*900 FILLER_19_27
*901 FILLER_19_274
*902 FILLER_19_281
*903 FILLER_19_293
*904 FILLER_19_3
*905 FILLER_19_305
*906 FILLER_19_317
*907 FILLER_19_329
*908 FILLER_19_335
*909 FILLER_19_337
*910 FILLER_19_349
*911 FILLER_19_361
*912 FILLER_19_373
*913 FILLER_19_385
*914 FILLER_19_39
*915 FILLER_19_391
*916 FILLER_19_393
*917 FILLER_19_405
*918 FILLER_19_412
*919 FILLER_19_424
*920 FILLER_19_436
*921 FILLER_19_449
*922 FILLER_19_461
*923 FILLER_19_473
*924 FILLER_19_485
*925 FILLER_19_497
*926 FILLER_19_503
*927 FILLER_19_505
*928 FILLER_19_51
*929 FILLER_19_512
*930 FILLER_19_55
*931 FILLER_19_57
*932 FILLER_19_69
*933 FILLER_19_81
*934 FILLER_19_93
*935 FILLER_1_105
*936 FILLER_1_111
*937 FILLER_1_113
*938 FILLER_1_125
*939 FILLER_1_15
*940 FILLER_1_154
*941 FILLER_1_166
*942 FILLER_1_169
*943 FILLER_1_181
*944 FILLER_1_206
*945 FILLER_1_218
*946 FILLER_1_225
*947 FILLER_1_252
*948 FILLER_1_264
*949 FILLER_1_27
*950 FILLER_1_276
*951 FILLER_1_281
*952 FILLER_1_293
*953 FILLER_1_3
*954 FILLER_1_305
*955 FILLER_1_317
*956 FILLER_1_329
*957 FILLER_1_335
*958 FILLER_1_337
*959 FILLER_1_349
*960 FILLER_1_373
*961 FILLER_1_385
*962 FILLER_1_39
*963 FILLER_1_391
*964 FILLER_1_393
*965 FILLER_1_405
*966 FILLER_1_417
*967 FILLER_1_429
*968 FILLER_1_441
*969 FILLER_1_447
*970 FILLER_1_449
*971 FILLER_1_461
*972 FILLER_1_473
*973 FILLER_1_485
*974 FILLER_1_497
*975 FILLER_1_503
*976 FILLER_1_505
*977 FILLER_1_51
*978 FILLER_1_513
*979 FILLER_1_55
*980 FILLER_1_57
*981 FILLER_1_69
*982 FILLER_1_81
*983 FILLER_1_93
*984 FILLER_20_109
*985 FILLER_20_121
*986 FILLER_20_133
*987 FILLER_20_139
*988 FILLER_20_141
*989 FILLER_20_15
*990 FILLER_20_153
*991 FILLER_20_165
*992 FILLER_20_177
*993 FILLER_20_189
*994 FILLER_20_195
*995 FILLER_20_197
*996 FILLER_20_209
*997 FILLER_20_221
*998 FILLER_20_233
*999 FILLER_20_245
*1000 FILLER_20_251
*1001 FILLER_20_256
*1002 FILLER_20_27
*1003 FILLER_20_283
*1004 FILLER_20_29
*1005 FILLER_20_295
*1006 FILLER_20_3
*1007 FILLER_20_307
*1008 FILLER_20_309
*1009 FILLER_20_321
*1010 FILLER_20_333
*1011 FILLER_20_345
*1012 FILLER_20_357
*1013 FILLER_20_363
*1014 FILLER_20_365
*1015 FILLER_20_377
*1016 FILLER_20_389
*1017 FILLER_20_401
*1018 FILLER_20_41
*1019 FILLER_20_413
*1020 FILLER_20_419
*1021 FILLER_20_421
*1022 FILLER_20_433
*1023 FILLER_20_445
*1024 FILLER_20_457
*1025 FILLER_20_469
*1026 FILLER_20_47
*1027 FILLER_20_475
*1028 FILLER_20_477
*1029 FILLER_20_489
*1030 FILLER_20_501
*1031 FILLER_20_51
*1032 FILLER_20_513
*1033 FILLER_20_63
*1034 FILLER_20_75
*1035 FILLER_20_83
*1036 FILLER_20_85
*1037 FILLER_20_97
*1038 FILLER_21_105
*1039 FILLER_21_111
*1040 FILLER_21_113
*1041 FILLER_21_119
*1042 FILLER_21_123
*1043 FILLER_21_130
*1044 FILLER_21_15
*1045 FILLER_21_155
*1046 FILLER_21_167
*1047 FILLER_21_169
*1048 FILLER_21_181
*1049 FILLER_21_193
*1050 FILLER_21_205
*1051 FILLER_21_217
*1052 FILLER_21_223
*1053 FILLER_21_225
*1054 FILLER_21_237
*1055 FILLER_21_249
*1056 FILLER_21_258
*1057 FILLER_21_27
*1058 FILLER_21_270
*1059 FILLER_21_278
*1060 FILLER_21_281
*1061 FILLER_21_293
*1062 FILLER_21_3
*1063 FILLER_21_305
*1064 FILLER_21_317
*1065 FILLER_21_329
*1066 FILLER_21_335
*1067 FILLER_21_337
*1068 FILLER_21_349
*1069 FILLER_21_361
*1070 FILLER_21_373
*1071 FILLER_21_385
*1072 FILLER_21_39
*1073 FILLER_21_391
*1074 FILLER_21_393
*1075 FILLER_21_405
*1076 FILLER_21_417
*1077 FILLER_21_428
*1078 FILLER_21_440
*1079 FILLER_21_449
*1080 FILLER_21_461
*1081 FILLER_21_47
*1082 FILLER_21_473
*1083 FILLER_21_485
*1084 FILLER_21_497
*1085 FILLER_21_503
*1086 FILLER_21_505
*1087 FILLER_21_513
*1088 FILLER_21_52
*1089 FILLER_21_78
*1090 FILLER_22_109
*1091 FILLER_22_121
*1092 FILLER_22_133
*1093 FILLER_22_139
*1094 FILLER_22_144
*1095 FILLER_22_15
*1096 FILLER_22_156
*1097 FILLER_22_168
*1098 FILLER_22_180
*1099 FILLER_22_192
*1100 FILLER_22_197
*1101 FILLER_22_209
*1102 FILLER_22_221
*1103 FILLER_22_233
*1104 FILLER_22_248
*1105 FILLER_22_27
*1106 FILLER_22_274
*1107 FILLER_22_281
*1108 FILLER_22_29
*1109 FILLER_22_293
*1110 FILLER_22_3
*1111 FILLER_22_305
*1112 FILLER_22_309
*1113 FILLER_22_321
*1114 FILLER_22_333
*1115 FILLER_22_345
*1116 FILLER_22_357
*1117 FILLER_22_363
*1118 FILLER_22_365
*1119 FILLER_22_377
*1120 FILLER_22_389
*1121 FILLER_22_401
*1122 FILLER_22_41
*1123 FILLER_22_413
*1124 FILLER_22_419
*1125 FILLER_22_421
*1126 FILLER_22_425
*1127 FILLER_22_447
*1128 FILLER_22_459
*1129 FILLER_22_471
*1130 FILLER_22_475
*1131 FILLER_22_477
*1132 FILLER_22_489
*1133 FILLER_22_501
*1134 FILLER_22_513
*1135 FILLER_22_53
*1136 FILLER_22_65
*1137 FILLER_22_77
*1138 FILLER_22_83
*1139 FILLER_22_85
*1140 FILLER_22_97
*1141 FILLER_23_105
*1142 FILLER_23_111
*1143 FILLER_23_113
*1144 FILLER_23_125
*1145 FILLER_23_137
*1146 FILLER_23_149
*1147 FILLER_23_15
*1148 FILLER_23_161
*1149 FILLER_23_167
*1150 FILLER_23_169
*1151 FILLER_23_181
*1152 FILLER_23_193
*1153 FILLER_23_198
*1154 FILLER_23_210
*1155 FILLER_23_222
*1156 FILLER_23_225
*1157 FILLER_23_237
*1158 FILLER_23_249
*1159 FILLER_23_27
*1160 FILLER_23_276
*1161 FILLER_23_3
*1162 FILLER_23_302
*1163 FILLER_23_314
*1164 FILLER_23_326
*1165 FILLER_23_334
*1166 FILLER_23_337
*1167 FILLER_23_349
*1168 FILLER_23_361
*1169 FILLER_23_373
*1170 FILLER_23_385
*1171 FILLER_23_39
*1172 FILLER_23_391
*1173 FILLER_23_393
*1174 FILLER_23_405
*1175 FILLER_23_417
*1176 FILLER_23_425
*1177 FILLER_23_429
*1178 FILLER_23_441
*1179 FILLER_23_447
*1180 FILLER_23_449
*1181 FILLER_23_457
*1182 FILLER_23_481
*1183 FILLER_23_493
*1184 FILLER_23_501
*1185 FILLER_23_505
*1186 FILLER_23_51
*1187 FILLER_23_513
*1188 FILLER_23_55
*1189 FILLER_23_57
*1190 FILLER_23_69
*1191 FILLER_23_81
*1192 FILLER_23_93
*1193 FILLER_24_109
*1194 FILLER_24_121
*1195 FILLER_24_133
*1196 FILLER_24_139
*1197 FILLER_24_141
*1198 FILLER_24_15
*1199 FILLER_24_153
*1200 FILLER_24_165
*1201 FILLER_24_177
*1202 FILLER_24_189
*1203 FILLER_24_195
*1204 FILLER_24_197
*1205 FILLER_24_209
*1206 FILLER_24_221
*1207 FILLER_24_233
*1208 FILLER_24_248
*1209 FILLER_24_253
*1210 FILLER_24_257
*1211 FILLER_24_27
*1212 FILLER_24_282
*1213 FILLER_24_289
*1214 FILLER_24_29
*1215 FILLER_24_3
*1216 FILLER_24_301
*1217 FILLER_24_307
*1218 FILLER_24_309
*1219 FILLER_24_321
*1220 FILLER_24_333
*1221 FILLER_24_345
*1222 FILLER_24_357
*1223 FILLER_24_363
*1224 FILLER_24_365
*1225 FILLER_24_377
*1226 FILLER_24_389
*1227 FILLER_24_401
*1228 FILLER_24_41
*1229 FILLER_24_413
*1230 FILLER_24_419
*1231 FILLER_24_421
*1232 FILLER_24_433
*1233 FILLER_24_445
*1234 FILLER_24_457
*1235 FILLER_24_469
*1236 FILLER_24_475
*1237 FILLER_24_477
*1238 FILLER_24_489
*1239 FILLER_24_501
*1240 FILLER_24_513
*1241 FILLER_24_53
*1242 FILLER_24_65
*1243 FILLER_24_77
*1244 FILLER_24_83
*1245 FILLER_24_85
*1246 FILLER_24_97
*1247 FILLER_25_105
*1248 FILLER_25_111
*1249 FILLER_25_113
*1250 FILLER_25_125
*1251 FILLER_25_137
*1252 FILLER_25_149
*1253 FILLER_25_15
*1254 FILLER_25_161
*1255 FILLER_25_167
*1256 FILLER_25_169
*1257 FILLER_25_181
*1258 FILLER_25_193
*1259 FILLER_25_205
*1260 FILLER_25_217
*1261 FILLER_25_223
*1262 FILLER_25_225
*1263 FILLER_25_237
*1264 FILLER_25_249
*1265 FILLER_25_27
*1266 FILLER_25_276
*1267 FILLER_25_281
*1268 FILLER_25_289
*1269 FILLER_25_3
*1270 FILLER_25_301
*1271 FILLER_25_313
*1272 FILLER_25_325
*1273 FILLER_25_333
*1274 FILLER_25_337
*1275 FILLER_25_349
*1276 FILLER_25_361
*1277 FILLER_25_373
*1278 FILLER_25_385
*1279 FILLER_25_39
*1280 FILLER_25_391
*1281 FILLER_25_393
*1282 FILLER_25_405
*1283 FILLER_25_417
*1284 FILLER_25_429
*1285 FILLER_25_441
*1286 FILLER_25_447
*1287 FILLER_25_449
*1288 FILLER_25_461
*1289 FILLER_25_473
*1290 FILLER_25_485
*1291 FILLER_25_497
*1292 FILLER_25_503
*1293 FILLER_25_505
*1294 FILLER_25_51
*1295 FILLER_25_513
*1296 FILLER_25_55
*1297 FILLER_25_57
*1298 FILLER_25_69
*1299 FILLER_25_81
*1300 FILLER_25_93
*1301 FILLER_26_109
*1302 FILLER_26_121
*1303 FILLER_26_133
*1304 FILLER_26_139
*1305 FILLER_26_141
*1306 FILLER_26_15
*1307 FILLER_26_153
*1308 FILLER_26_165
*1309 FILLER_26_177
*1310 FILLER_26_189
*1311 FILLER_26_195
*1312 FILLER_26_197
*1313 FILLER_26_209
*1314 FILLER_26_221
*1315 FILLER_26_233
*1316 FILLER_26_245
*1317 FILLER_26_251
*1318 FILLER_26_253
*1319 FILLER_26_262
*1320 FILLER_26_27
*1321 FILLER_26_272
*1322 FILLER_26_284
*1323 FILLER_26_29
*1324 FILLER_26_296
*1325 FILLER_26_3
*1326 FILLER_26_309
*1327 FILLER_26_321
*1328 FILLER_26_333
*1329 FILLER_26_345
*1330 FILLER_26_357
*1331 FILLER_26_363
*1332 FILLER_26_365
*1333 FILLER_26_377
*1334 FILLER_26_389
*1335 FILLER_26_401
*1336 FILLER_26_41
*1337 FILLER_26_413
*1338 FILLER_26_419
*1339 FILLER_26_421
*1340 FILLER_26_433
*1341 FILLER_26_445
*1342 FILLER_26_457
*1343 FILLER_26_469
*1344 FILLER_26_475
*1345 FILLER_26_477
*1346 FILLER_26_489
*1347 FILLER_26_501
*1348 FILLER_26_513
*1349 FILLER_26_53
*1350 FILLER_26_60
*1351 FILLER_26_72
*1352 FILLER_26_85
*1353 FILLER_26_97
*1354 FILLER_27_102
*1355 FILLER_27_110
*1356 FILLER_27_113
*1357 FILLER_27_125
*1358 FILLER_27_13
*1359 FILLER_27_137
*1360 FILLER_27_149
*1361 FILLER_27_158
*1362 FILLER_27_166
*1363 FILLER_27_169
*1364 FILLER_27_181
*1365 FILLER_27_193
*1366 FILLER_27_205
*1367 FILLER_27_217
*1368 FILLER_27_223
*1369 FILLER_27_225
*1370 FILLER_27_237
*1371 FILLER_27_249
*1372 FILLER_27_25
*1373 FILLER_27_261
*1374 FILLER_27_273
*1375 FILLER_27_279
*1376 FILLER_27_281
*1377 FILLER_27_293
*1378 FILLER_27_305
*1379 FILLER_27_317
*1380 FILLER_27_329
*1381 FILLER_27_335
*1382 FILLER_27_337
*1383 FILLER_27_349
*1384 FILLER_27_361
*1385 FILLER_27_37
*1386 FILLER_27_373
*1387 FILLER_27_385
*1388 FILLER_27_391
*1389 FILLER_27_393
*1390 FILLER_27_405
*1391 FILLER_27_417
*1392 FILLER_27_429
*1393 FILLER_27_441
*1394 FILLER_27_447
*1395 FILLER_27_449
*1396 FILLER_27_461
*1397 FILLER_27_473
*1398 FILLER_27_485
*1399 FILLER_27_49
*1400 FILLER_27_497
*1401 FILLER_27_503
*1402 FILLER_27_505
*1403 FILLER_27_513
*1404 FILLER_27_55
*1405 FILLER_27_78
*1406 FILLER_27_90
*1407 FILLER_28_109
*1408 FILLER_28_121
*1409 FILLER_28_133
*1410 FILLER_28_139
*1411 FILLER_28_141
*1412 FILLER_28_15
*1413 FILLER_28_174
*1414 FILLER_28_186
*1415 FILLER_28_194
*1416 FILLER_28_197
*1417 FILLER_28_209
*1418 FILLER_28_221
*1419 FILLER_28_233
*1420 FILLER_28_245
*1421 FILLER_28_251
*1422 FILLER_28_253
*1423 FILLER_28_265
*1424 FILLER_28_27
*1425 FILLER_28_277
*1426 FILLER_28_289
*1427 FILLER_28_29
*1428 FILLER_28_3
*1429 FILLER_28_301
*1430 FILLER_28_307
*1431 FILLER_28_309
*1432 FILLER_28_321
*1433 FILLER_28_333
*1434 FILLER_28_360
*1435 FILLER_28_365
*1436 FILLER_28_377
*1437 FILLER_28_389
*1438 FILLER_28_401
*1439 FILLER_28_41
*1440 FILLER_28_413
*1441 FILLER_28_419
*1442 FILLER_28_421
*1443 FILLER_28_433
*1444 FILLER_28_441
*1445 FILLER_28_446
*1446 FILLER_28_458
*1447 FILLER_28_470
*1448 FILLER_28_477
*1449 FILLER_28_489
*1450 FILLER_28_501
*1451 FILLER_28_513
*1452 FILLER_28_53
*1453 FILLER_28_57
*1454 FILLER_28_61
*1455 FILLER_28_73
*1456 FILLER_28_81
*1457 FILLER_28_85
*1458 FILLER_28_97
*1459 FILLER_29_105
*1460 FILLER_29_111
*1461 FILLER_29_113
*1462 FILLER_29_125
*1463 FILLER_29_137
*1464 FILLER_29_149
*1465 FILLER_29_15
*1466 FILLER_29_153
*1467 FILLER_29_157
*1468 FILLER_29_165
*1469 FILLER_29_169
*1470 FILLER_29_181
*1471 FILLER_29_193
*1472 FILLER_29_205
*1473 FILLER_29_217
*1474 FILLER_29_223
*1475 FILLER_29_225
*1476 FILLER_29_237
*1477 FILLER_29_249
*1478 FILLER_29_261
*1479 FILLER_29_27
*1480 FILLER_29_273
*1481 FILLER_29_279
*1482 FILLER_29_281
*1483 FILLER_29_293
*1484 FILLER_29_3
*1485 FILLER_29_305
*1486 FILLER_29_317
*1487 FILLER_29_329
*1488 FILLER_29_335
*1489 FILLER_29_337
*1490 FILLER_29_343
*1491 FILLER_29_350
*1492 FILLER_29_362
*1493 FILLER_29_374
*1494 FILLER_29_386
*1495 FILLER_29_39
*1496 FILLER_29_393
*1497 FILLER_29_405
*1498 FILLER_29_417
*1499 FILLER_29_429
*1500 FILLER_29_441
*1501 FILLER_29_447
*1502 FILLER_29_449
*1503 FILLER_29_461
*1504 FILLER_29_473
*1505 FILLER_29_485
*1506 FILLER_29_497
*1507 FILLER_29_503
*1508 FILLER_29_505
*1509 FILLER_29_51
*1510 FILLER_29_513
*1511 FILLER_29_55
*1512 FILLER_29_57
*1513 FILLER_29_69
*1514 FILLER_29_81
*1515 FILLER_29_93
*1516 FILLER_2_109
*1517 FILLER_2_121
*1518 FILLER_2_136
*1519 FILLER_2_144
*1520 FILLER_2_15
*1521 FILLER_2_156
*1522 FILLER_2_168
*1523 FILLER_2_180
*1524 FILLER_2_184
*1525 FILLER_2_188
*1526 FILLER_2_197
*1527 FILLER_2_209
*1528 FILLER_2_217
*1529 FILLER_2_240
*1530 FILLER_2_253
*1531 FILLER_2_265
*1532 FILLER_2_27
*1533 FILLER_2_277
*1534 FILLER_2_289
*1535 FILLER_2_29
*1536 FILLER_2_3
*1537 FILLER_2_301
*1538 FILLER_2_307
*1539 FILLER_2_309
*1540 FILLER_2_313
*1541 FILLER_2_325
*1542 FILLER_2_337
*1543 FILLER_2_349
*1544 FILLER_2_355
*1545 FILLER_2_363
*1546 FILLER_2_365
*1547 FILLER_2_377
*1548 FILLER_2_389
*1549 FILLER_2_401
*1550 FILLER_2_41
*1551 FILLER_2_413
*1552 FILLER_2_419
*1553 FILLER_2_421
*1554 FILLER_2_433
*1555 FILLER_2_445
*1556 FILLER_2_457
*1557 FILLER_2_469
*1558 FILLER_2_475
*1559 FILLER_2_480
*1560 FILLER_2_492
*1561 FILLER_2_504
*1562 FILLER_2_53
*1563 FILLER_2_65
*1564 FILLER_2_77
*1565 FILLER_2_83
*1566 FILLER_2_85
*1567 FILLER_2_97
*1568 FILLER_30_109
*1569 FILLER_30_121
*1570 FILLER_30_133
*1571 FILLER_30_139
*1572 FILLER_30_141
*1573 FILLER_30_153
*1574 FILLER_30_165
*1575 FILLER_30_177
*1576 FILLER_30_18
*1577 FILLER_30_189
*1578 FILLER_30_195
*1579 FILLER_30_197
*1580 FILLER_30_209
*1581 FILLER_30_221
*1582 FILLER_30_233
*1583 FILLER_30_245
*1584 FILLER_30_251
*1585 FILLER_30_253
*1586 FILLER_30_26
*1587 FILLER_30_265
*1588 FILLER_30_277
*1589 FILLER_30_289
*1590 FILLER_30_29
*1591 FILLER_30_301
*1592 FILLER_30_307
*1593 FILLER_30_309
*1594 FILLER_30_321
*1595 FILLER_30_335
*1596 FILLER_30_347
*1597 FILLER_30_359
*1598 FILLER_30_363
*1599 FILLER_30_365
*1600 FILLER_30_377
*1601 FILLER_30_389
*1602 FILLER_30_401
*1603 FILLER_30_41
*1604 FILLER_30_413
*1605 FILLER_30_419
*1606 FILLER_30_421
*1607 FILLER_30_433
*1608 FILLER_30_445
*1609 FILLER_30_457
*1610 FILLER_30_465
*1611 FILLER_30_470
*1612 FILLER_30_477
*1613 FILLER_30_489
*1614 FILLER_30_501
*1615 FILLER_30_512
*1616 FILLER_30_53
*1617 FILLER_30_6
*1618 FILLER_30_65
*1619 FILLER_30_77
*1620 FILLER_30_83
*1621 FILLER_30_85
*1622 FILLER_30_97
*1623 FILLER_31_105
*1624 FILLER_31_111
*1625 FILLER_31_113
*1626 FILLER_31_125
*1627 FILLER_31_137
*1628 FILLER_31_149
*1629 FILLER_31_15
*1630 FILLER_31_161
*1631 FILLER_31_167
*1632 FILLER_31_169
*1633 FILLER_31_181
*1634 FILLER_31_193
*1635 FILLER_31_205
*1636 FILLER_31_217
*1637 FILLER_31_223
*1638 FILLER_31_225
*1639 FILLER_31_233
*1640 FILLER_31_256
*1641 FILLER_31_268
*1642 FILLER_31_27
*1643 FILLER_31_281
*1644 FILLER_31_293
*1645 FILLER_31_3
*1646 FILLER_31_305
*1647 FILLER_31_317
*1648 FILLER_31_329
*1649 FILLER_31_335
*1650 FILLER_31_337
*1651 FILLER_31_349
*1652 FILLER_31_361